CSD_code = ATEWUR | q = 0 | S = 0 | Stoichiometry = C25H36Cl2N4Ti | MND = 5
     RDKit          3D

  9  8  0  0  1  0  0  0  0  0999 V2000
    4.9337    4.3739    3.5204 Ti  0  0  0  0  0  4  0  0  0  0  0  0
    2.6700    3.8948    3.4944 Cl  0  0  0  0  0  0  0  0  0  0  0  0
    7.1201    4.2441    4.2639 Cl  0  0  0  0  0  0  0  0  0  0  0  0
    4.6546    5.6696    4.7867 N   0  0  0  0  0  0  0  0  0  0  0  0
    5.1865    5.2368    1.9160 N   0  0  0  0  0  0  0  0  0  0  0  0
    4.5363    5.1399    6.1171 C   0  0  0  0  0  0  0  0  0  0  0  0
    5.1455    7.0173    4.7704 C   0  0  0  0  0  0  0  0  0  0  0  0
    4.0887    5.6668    1.0776 C   0  0  0  0  0  0  0  0  0  0  0  0
    6.4042    5.8936    1.4955 C   0  0  0  0  0  0  0  0  0  0  0  0
  1  3  1  0
  1  4  1  0
  2  1  1  0
  4  6  1  0
  5  1  1  0
  7  4  1  0
  8  5  1  0
  9  5  1  0
M  END
