CSD_code  0.000000
 OpenBabel06162216193D

 47 49  0  0  0  0  0  0  0  0999 V2000
    5.0662    1.2207    4.2660 N   0  0  0  0  0  0  0  0  0  0  0  0
    5.1897    1.5767    2.1628 N   0  0  0  0  0  0  0  0  0  0  0  0
    5.1162    2.2098    3.3495 C   0  0  0  0  0  2  0  0  0  0  0  0
    5.1108   -0.0083    3.6613 C   0  0  0  0  0  0  0  0  0  0  0  0
    5.0848   -0.9209    4.2217 H   0  0  0  0  0  0  0  0  0  0  0  0
    5.1888    0.2165    2.3294 C   0  0  0  0  0  0  0  0  0  0  0  0
    5.2490   -0.4623    1.5029 H   0  0  0  0  0  0  0  0  0  0  0  0
    4.9943    1.3969    5.6792 C   0  0  0  0  0  0  0  0  0  0  0  0
    6.1782    1.4693    6.4182 C   0  0  0  0  0  0  0  0  0  0  0  0
    6.0819    1.6887    7.7843 C   0  0  0  0  0  0  0  0  0  0  0  0
    6.9885    1.7674    8.3664 H   0  0  0  0  0  0  0  0  0  0  0  0
    4.8530    1.8030    8.4196 C   0  0  0  0  0  0  0  0  0  0  0  0
    3.6972    1.6355    7.6717 C   0  0  0  0  0  0  0  0  0  0  0  0
    2.7351    1.6711    8.1618 H   0  0  0  0  0  0  0  0  0  0  0  0
    3.7434    1.4171    6.3012 C   0  0  0  0  0  0  0  0  0  0  0  0
    7.5108    1.2838    5.7646 C   0  0  0  0  0  0  0  0  0  0  0  0
    7.4967    0.4356    5.0811 H   0  0  0  0  0  0  0  0  0  0  0  0
    7.7726    2.1761    5.1944 H   0  0  0  0  0  0  0  0  0  0  0  0
    8.2791    1.1175    6.5143 H   0  0  0  0  0  0  0  0  0  0  0  0
    4.7868    2.0833    9.8896 C   0  0  0  0  0  0  0  0  0  0  0  0
    5.0348    3.1279   10.0776 H   0  0  0  0  0  0  0  0  0  0  0  0
    5.5023    1.4688   10.4322 H   0  0  0  0  0  0  0  0  0  0  0  0
    3.7902    1.8930   10.2794 H   0  0  0  0  0  0  0  0  0  0  0  0
    2.4904    1.1750    5.5202 C   0  0  0  0  0  0  0  0  0  0  0  0
    1.6361    1.1016    6.1875 H   0  0  0  0  0  0  0  0  0  0  0  0
    2.3092    1.9882    4.8148 H   0  0  0  0  0  0  0  0  0  0  0  0
    2.5660    0.2505    4.9478 H   0  0  0  0  0  0  0  0  0  0  0  0
    5.2732    2.2093    0.8899 C   0  0  0  0  0  0  0  0  0  0  0  0
    4.1192    2.3368    0.1162 C   0  0  0  0  0  0  0  0  0  0  0  0
    4.2357    2.9100   -1.1431 C   0  0  0  0  0  0  0  0  0  0  0  0
    3.3494    3.0217   -1.7510 H   0  0  0  0  0  0  0  0  0  0  0  0
    5.4590    3.3406   -1.6339 C   0  0  0  0  0  0  0  0  0  0  0  0
    6.5925    3.1810   -0.8462 C   0  0  0  0  0  0  0  0  0  0  0  0
    7.5512    3.5013   -1.2293 H   0  0  0  0  0  0  0  0  0  0  0  0
    6.5241    2.6137    0.4169 C   0  0  0  0  0  0  0  0  0  0  0  0
    2.7979    1.8606    0.6331 C   0  0  0  0  0  0  0  0  0  0  0  0
    2.0153    2.0355   -0.0999 H   0  0  0  0  0  0  0  0  0  0  0  0
    2.5398    2.3888    1.5536 H   0  0  0  0  0  0  0  0  0  0  0  0
    2.8296    0.7945    0.8580 H   0  0  0  0  0  0  0  0  0  0  0  0
    5.5722    3.9652   -2.9916 C   0  0  0  0  0  0  0  0  0  0  0  0
    4.6042    4.0084   -3.4837 H   0  0  0  0  0  0  0  0  0  0  0  0
    5.9665    4.9776   -2.9109 H   0  0  0  0  0  0  0  0  0  0  0  0
    6.2560    3.3928   -3.6169 H   0  0  0  0  0  0  0  0  0  0  0  0
    7.7527    2.4124    1.2484 C   0  0  0  0  0  0  0  0  0  0  0  0
    8.6383    2.7304    0.7051 H   0  0  0  0  0  0  0  0  0  0  0  0
    7.6873    2.9876    2.1753 H   0  0  0  0  0  0  0  0  0  0  0  0
    7.8684    1.3615    1.5159 H   0  0  0  0  0  0  0  0  0  0  0  0
  1  8  1  0  0  0  0
  2  6  1  0  0  0  0
  2  3  1  0  0  0  0
  3  1  1  0  0  0  0
  4  5  1  0  0  0  0
  4  1  1  0  0  0  0
  6  4  2  0  0  0  0
  7  6  1  0  0  0  0
  8 15  2  0  0  0  0
  8  9  1  0  0  0  0
  9 10  2  0  0  0  0
 10 11  1  0  0  0  0
 10 12  1  0  0  0  0
 12 20  1  0  0  0  0
 13 14  1  0  0  0  0
 13 12  2  0  0  0  0
 15 13  1  0  0  0  0
 16  9  1  0  0  0  0
 16 19  1  0  0  0  0
 17 16  1  0  0  0  0
 18 16  1  0  0  0  0
 20 21  1  0  0  0  0
 20 23  1  0  0  0  0
 20 22  1  0  0  0  0
 24 25  1  0  0  0  0
 24 15  1  0  0  0  0
 26 24  1  0  0  0  0
 27 24  1  0  0  0  0
 28  2  1  0  0  0  0
 29 36  1  0  0  0  0
 29 28  2  0  0  0  0
 30 29  1  0  0  0  0
 31 30  1  0  0  0  0
 32 30  2  0  0  0  0
 32 33  1  0  0  0  0
 33 35  2  0  0  0  0
 34 33  1  0  0  0  0
 35 28  1  0  0  0  0
 35 44  1  0  0  0  0
 36 39  1  0  0  0  0
 36 38  1  0  0  0  0
 37 36  1  0  0  0  0
 40 42  1  0  0  0  0
 40 32  1  0  0  0  0
 41 40  1  0  0  0  0
 43 40  1  0  0  0  0
 44 47  1  0  0  0  0
 44 46  1  0  0  0  0
 45 44  1  0  0  0  0
M  END
